# generated using pymatgen
data_LiBe3
_symmetry_space_group_name_H-M   I4/mmm
_cell_length_a   3.24815251
_cell_length_b   3.24815251
_cell_length_c   4.87215174
_cell_angle_alpha   90.00000000
_cell_angle_beta   90.00000000
_cell_angle_gamma   90.00000000
_symmetry_Int_Tables_number   139
_chemical_formula_structural   LiBe3
_chemical_formula_sum   'Li2 Be6'
_cell_volume   51.40361115
_cell_formula_units_Z   2
loop_
 _symmetry_equiv_pos_site_id
 _symmetry_equiv_pos_as_xyz
  1  'x, y, z'
  2  '-x, -y, -z'
  3  '-y, x, z'
  4  'y, -x, -z'
  5  '-x, -y, z'
  6  'x, y, -z'
  7  'y, -x, z'
  8  '-y, x, -z'
  9  '-y, -x, -z'
  10  'y, x, z'
  11  '-x, y, -z'
  12  'x, -y, z'
  13  'y, x, -z'
  14  '-y, -x, z'
  15  'x, -y, -z'
  16  '-x, y, z'
  17  'x+1/2, y+1/2, z+1/2'
  18  '-x+1/2, -y+1/2, -z+1/2'
  19  '-y+1/2, x+1/2, z+1/2'
  20  'y+1/2, -x+1/2, -z+1/2'
  21  '-x+1/2, -y+1/2, z+1/2'
  22  'x+1/2, y+1/2, -z+1/2'
  23  'y+1/2, -x+1/2, z+1/2'
  24  '-y+1/2, x+1/2, -z+1/2'
  25  '-y+1/2, -x+1/2, -z+1/2'
  26  'y+1/2, x+1/2, z+1/2'
  27  '-x+1/2, y+1/2, -z+1/2'
  28  'x+1/2, -y+1/2, z+1/2'
  29  'y+1/2, x+1/2, -z+1/2'
  30  '-y+1/2, -x+1/2, z+1/2'
  31  'x+1/2, -y+1/2, -z+1/2'
  32  '-x+1/2, y+1/2, z+1/2'
loop_
 _atom_site_type_symbol
 _atom_site_label
 _atom_site_symmetry_multiplicity
 _atom_site_fract_x
 _atom_site_fract_y
 _atom_site_fract_z
 _atom_site_occupancy
  Li  Li0  2  0.00000000  0.00000000  0.50000000  1
  Be  Be1  4  0.00000000  0.50000000  0.25000000  1
  Be  Be2  2  0.00000000  0.00000000  0.00000000  1
