# generated using pymatgen
data_Be3Si
_symmetry_space_group_name_H-M   R-3c
_cell_length_a   5.60348944
_cell_length_b   5.60348944
_cell_length_c   6.65296985
_cell_angle_alpha   90.00000000
_cell_angle_beta   90.00000000
_cell_angle_gamma   120.00000000
_symmetry_Int_Tables_number   167
_chemical_formula_structural   Be3Si
_chemical_formula_sum   'Be18 Si6'
_cell_volume   180.91030381
_cell_formula_units_Z   6
loop_
 _symmetry_equiv_pos_site_id
 _symmetry_equiv_pos_as_xyz
  1  'x, y, z'
  2  '-x, -y, -z'
  3  '-x+2/3, -x+y+1/3, -z+5/6'
  4  'x+2/3, x-y+1/3, z+5/6'
  5  'x-y+2/3, -y+1/3, -z+5/6'
  6  '-x+y+2/3, y+1/3, z+5/6'
  7  '-y, x-y, z'
  8  'y, -x+y, -z'
  9  'y+2/3, x+1/3, -z+5/6'
  10  '-y+2/3, -x+1/3, z+5/6'
  11  '-x+y, -x, z'
  12  'x-y, x, -z'
  13  'x+2/3, y+1/3, z+1/3'
  14  '-x+2/3, -y+1/3, -z+1/3'
  15  '-x+1/3, -x+y+2/3, -z+1/6'
  16  'x+1/3, x-y+2/3, z+1/6'
  17  'x-y+1/3, -y+2/3, -z+1/6'
  18  '-x+y+1/3, y+2/3, z+1/6'
  19  '-y+2/3, x-y+1/3, z+1/3'
  20  'y+2/3, -x+y+1/3, -z+1/3'
  21  'y+1/3, x+2/3, -z+1/6'
  22  '-y+1/3, -x+2/3, z+1/6'
  23  '-x+y+2/3, -x+1/3, z+1/3'
  24  'x-y+2/3, x+1/3, -z+1/3'
  25  'x+1/3, y+2/3, z+2/3'
  26  '-x+1/3, -y+2/3, -z+2/3'
  27  '-x, -x+y, -z+1/2'
  28  'x, x-y, z+1/2'
  29  'x-y, -y, -z+1/2'
  30  '-x+y, y, z+1/2'
  31  '-y+1/3, x-y+2/3, z+2/3'
  32  'y+1/3, -x+y+2/3, -z+2/3'
  33  'y, x, -z+1/2'
  34  '-y, -x, z+1/2'
  35  '-x+y+1/3, -x+2/3, z+2/3'
  36  'x-y+1/3, x+2/3, -z+2/3'
loop_
 _atom_site_type_symbol
 _atom_site_label
 _atom_site_symmetry_multiplicity
 _atom_site_fract_x
 _atom_site_fract_y
 _atom_site_fract_z
 _atom_site_occupancy
  Be  Be0  18  0.00000000  0.25660400  0.75000000  1
  Si  Si1  6  0.00000000  0.00000000  0.00000000  1
