# generated using pymatgen
data_BC3
_symmetry_space_group_name_H-M   P-4m2
_cell_length_a   2.40032095
_cell_length_b   2.40032095
_cell_length_c   3.80386915
_cell_angle_alpha   90.00000000
_cell_angle_beta   90.00000000
_cell_angle_gamma   90.00000000
_symmetry_Int_Tables_number   115
_chemical_formula_structural   BC3
_chemical_formula_sum   'B1 C3'
_cell_volume   21.91614673
_cell_formula_units_Z   1
loop_
 _symmetry_equiv_pos_site_id
 _symmetry_equiv_pos_as_xyz
  1  'x, y, z'
  2  'y, -x, -z'
  3  '-x, -y, z'
  4  '-y, x, -z'
  5  '-x, y, z'
  6  '-y, -x, -z'
  7  'x, -y, z'
  8  'y, x, -z'
loop_
 _atom_site_type_symbol
 _atom_site_label
 _atom_site_symmetry_multiplicity
 _atom_site_fract_x
 _atom_site_fract_y
 _atom_site_fract_z
 _atom_site_occupancy
  B  B0  1  0.00000000  0.00000000  0.50000000  1
  C  C1  2  0.00000000  0.50000000  0.23188500  1
  C  C2  1  0.50000000  0.50000000  0.00000000  1
