# generated using pymatgen
data_CN3
_symmetry_space_group_name_H-M   P3m1
_cell_length_a   2.36328489
_cell_length_b   2.36328489
_cell_length_c   5.42350917
_cell_angle_alpha   90.00000000
_cell_angle_beta   90.00000000
_cell_angle_gamma   120.00000000
_symmetry_Int_Tables_number   156
_chemical_formula_structural   CN3
_chemical_formula_sum   'C1 N3'
_cell_volume   26.23271052
_cell_formula_units_Z   1
loop_
 _symmetry_equiv_pos_site_id
 _symmetry_equiv_pos_as_xyz
  1  'x, y, z'
  2  '-y, x-y, z'
  3  '-x+y, -x, z'
  4  '-y, -x, z'
  5  '-x+y, y, z'
  6  'x, x-y, z'
loop_
 _atom_site_type_symbol
 _atom_site_label
 _atom_site_symmetry_multiplicity
 _atom_site_fract_x
 _atom_site_fract_y
 _atom_site_fract_z
 _atom_site_occupancy
  C  C0  1  0.33333333  0.66666667  0.90360300  1
  N  N1  1  0.00000000  0.00000000  0.26819100  1
  N  N2  1  0.00000000  0.00000000  0.47148600  1
  N  N3  1  0.66666667  0.33333333  0.86662600  1
