# generated using pymatgen
data_P3S
_symmetry_space_group_name_H-M   P-3m1
_cell_length_a   3.12360782
_cell_length_b   3.12360782
_cell_length_c   10.95900148
_cell_angle_alpha   90.00000000
_cell_angle_beta   90.00000000
_cell_angle_gamma   120.00000000
_symmetry_Int_Tables_number   164
_chemical_formula_structural   P3S
_chemical_formula_sum   'P6 S2'
_cell_volume   92.60077500
_cell_formula_units_Z   2
loop_
 _symmetry_equiv_pos_site_id
 _symmetry_equiv_pos_as_xyz
  1  'x, y, z'
  2  '-x, -y, -z'
  3  '-y, x-y, z'
  4  'y, -x+y, -z'
  5  '-x+y, -x, z'
  6  'x-y, x, -z'
  7  'y, x, -z'
  8  '-y, -x, z'
  9  'x-y, -y, -z'
  10  '-x+y, y, z'
  11  '-x, -x+y, -z'
  12  'x, x-y, z'
loop_
 _atom_site_type_symbol
 _atom_site_label
 _atom_site_symmetry_multiplicity
 _atom_site_fract_x
 _atom_site_fract_y
 _atom_site_fract_z
 _atom_site_occupancy
  P  P0  2  0.00000000  0.00000000  0.18266250  1
  P  P1  2  0.33333333  0.66666667  0.94261550  1
  P  P2  2  0.33333333  0.66666667  0.29670350  1
  S  S3  2  0.33333333  0.66666667  0.58520250  1
