# generated using pymatgen
data_Al4Cl
_symmetry_space_group_name_H-M   P4/nmm
_cell_length_a   2.69202523
_cell_length_b   2.69202523
_cell_length_c   16.88514828
_cell_angle_alpha   90.00000000
_cell_angle_beta   90.00000000
_cell_angle_gamma   90.00000000
_symmetry_Int_Tables_number   129
_chemical_formula_structural   Al4Cl
_chemical_formula_sum   'Al8 Cl2'
_cell_volume   122.36666653
_cell_formula_units_Z   2
loop_
 _symmetry_equiv_pos_site_id
 _symmetry_equiv_pos_as_xyz
  1  'x, y, z'
  2  '-y+1/2, x+1/2, z'
  3  '-x, -y, z'
  4  'y+1/2, -x+1/2, z'
  5  'x+1/2, -y+1/2, -z'
  6  '-y, -x, -z'
  7  '-x+1/2, y+1/2, -z'
  8  'y, x, -z'
  9  '-x+1/2, -y+1/2, -z'
  10  'y, -x, -z'
  11  'x+1/2, y+1/2, -z'
  12  '-y, x, -z'
  13  '-x, y, z'
  14  'y+1/2, x+1/2, z'
  15  'x, -y, z'
  16  '-y+1/2, -x+1/2, z'
loop_
 _atom_site_type_symbol
 _atom_site_label
 _atom_site_symmetry_multiplicity
 _atom_site_fract_x
 _atom_site_fract_y
 _atom_site_fract_z
 _atom_site_occupancy
  Al  Al0  2  0.00000000  0.50000000  0.15043750  1
  Al  Al1  2  0.00000000  0.50000000  0.34974450  1
  Al  Al2  2  0.00000000  0.50000000  0.75048250  1
  Al  Al3  2  0.00000000  0.50000000  0.95090750  1
  Cl  Cl4  2  0.00000000  0.50000000  0.56203550  1
