# generated using pymatgen
data_Al4Cl
_symmetry_space_group_name_H-M   P3m1
_cell_length_a   2.66296995
_cell_length_b   2.66296995
_cell_length_c   20.03557790
_cell_angle_alpha   90.00000000
_cell_angle_beta   90.00000000
_cell_angle_gamma   120.00000000
_symmetry_Int_Tables_number   156
_chemical_formula_structural   Al4Cl
_chemical_formula_sum   'Al8 Cl2'
_cell_volume   123.04530207
_cell_formula_units_Z   2
loop_
 _symmetry_equiv_pos_site_id
 _symmetry_equiv_pos_as_xyz
  1  'x, y, z'
  2  '-y, x-y, z'
  3  '-x+y, -x, z'
  4  '-y, -x, z'
  5  '-x+y, y, z'
  6  'x, x-y, z'
loop_
 _atom_site_type_symbol
 _atom_site_label
 _atom_site_symmetry_multiplicity
 _atom_site_fract_x
 _atom_site_fract_y
 _atom_site_fract_z
 _atom_site_occupancy
  Al  Al0  1  0.00000000  0.00000000  0.05164000  1
  Al  Al1  1  0.00000000  0.00000000  0.46757500  1
  Al  Al2  1  0.00000000  0.00000000  0.84799600  1
  Al  Al3  1  0.33333333  0.66666667  0.25984900  1
  Al  Al4  1  0.33333333  0.66666667  0.56769600  1
  Al  Al5  1  0.66666667  0.33333333  0.15564400  1
  Al  Al6  1  0.66666667  0.33333333  0.36468700  1
  Al  Al7  1  0.66666667  0.33333333  0.94890900  1
  Cl  Cl8  1  0.33333333  0.66666667  0.76542200  1
  Cl  Cl9  1  0.66666667  0.33333333  0.65023300  1
