# generated using pymatgen
data_Al4O
_symmetry_space_group_name_H-M   P3m1
_cell_length_a   2.59786283
_cell_length_b   2.59786283
_cell_length_c   18.20189695
_cell_angle_alpha   90.00000000
_cell_angle_beta   90.00000000
_cell_angle_gamma   120.00000000
_symmetry_Int_Tables_number   156
_chemical_formula_structural   Al4O
_chemical_formula_sum   'Al8 O2'
_cell_volume   106.38483317
_cell_formula_units_Z   2
loop_
 _symmetry_equiv_pos_site_id
 _symmetry_equiv_pos_as_xyz
  1  'x, y, z'
  2  '-y, x-y, z'
  3  '-x+y, -x, z'
  4  '-y, -x, z'
  5  '-x+y, y, z'
  6  'x, x-y, z'
loop_
 _atom_site_type_symbol
 _atom_site_label
 _atom_site_symmetry_multiplicity
 _atom_site_fract_x
 _atom_site_fract_y
 _atom_site_fract_z
 _atom_site_occupancy
  Al  Al0  1  0.00000000  0.00000000  0.03723500  1
  Al  Al1  1  0.00000000  0.00000000  0.26607600  1
  Al  Al2  1  0.00000000  0.00000000  0.64773800  1
  Al  Al3  1  0.33333333  0.66666667  0.15158700  1
  Al  Al4  1  0.33333333  0.66666667  0.38186400  1
  Al  Al5  1  0.33333333  0.66666667  0.80379300  1
  Al  Al6  1  0.66666667  0.33333333  0.53779500  1
  Al  Al7  1  0.66666667  0.33333333  0.92150600  1
  O  O8  1  0.33333333  0.66666667  0.48321500  1
  O  O9  1  0.33333333  0.66666667  0.70222100  1
