# generated using pymatgen
data_Be4S
_symmetry_space_group_name_H-M   P3m1
_cell_length_a   3.12499277
_cell_length_b   3.12499277
_cell_length_c   9.68681898
_cell_angle_alpha   90.00000000
_cell_angle_beta   90.00000000
_cell_angle_gamma   120.00000000
_symmetry_Int_Tables_number   156
_chemical_formula_structural   Be4S
_chemical_formula_sum   'Be8 S2'
_cell_volume   81.92375510
_cell_formula_units_Z   2
loop_
 _symmetry_equiv_pos_site_id
 _symmetry_equiv_pos_as_xyz
  1  'x, y, z'
  2  '-y, x-y, z'
  3  '-x+y, -x, z'
  4  '-y, -x, z'
  5  '-x+y, y, z'
  6  'x, x-y, z'
loop_
 _atom_site_type_symbol
 _atom_site_label
 _atom_site_symmetry_multiplicity
 _atom_site_fract_x
 _atom_site_fract_y
 _atom_site_fract_z
 _atom_site_occupancy
  Be  Be0  1  0.00000000  0.00000000  0.33792000  1
  Be  Be1  1  0.00000000  0.00000000  0.54272800  1
  Be  Be2  1  0.33333333  0.66666667  0.41421300  1
  Be  Be3  1  0.33333333  0.66666667  0.60877800  1
  Be  Be4  1  0.33333333  0.66666667  0.81005800  1
  Be  Be5  1  0.66666667  0.33333333  0.08813000  1
  Be  Be6  1  0.66666667  0.33333333  0.46917000  1
  Be  Be7  1  0.66666667  0.33333333  0.68345300  1
  S  S8  1  0.00000000  0.00000000  0.14514400  1
  S  S9  1  0.66666667  0.33333333  0.88895400  1
