# generated using pymatgen
data_AlH4
_symmetry_space_group_name_H-M   P3
_cell_length_a   4.63971099
_cell_length_b   4.63971099
_cell_length_c   2.36627505
_cell_angle_alpha   90.00000000
_cell_angle_beta   90.00000000
_cell_angle_gamma   120.00000000
_symmetry_Int_Tables_number   143
_chemical_formula_structural   AlH4
_chemical_formula_sum   'Al2 H8'
_cell_volume   44.11412953
_cell_formula_units_Z   2
loop_
 _symmetry_equiv_pos_site_id
 _symmetry_equiv_pos_as_xyz
  1  'x, y, z'
  2  '-y, x-y, z'
  3  '-x+y, -x, z'
loop_
 _atom_site_type_symbol
 _atom_site_label
 _atom_site_symmetry_multiplicity
 _atom_site_fract_x
 _atom_site_fract_y
 _atom_site_fract_z
 _atom_site_occupancy
  Al  Al0  1  0.33333333  0.66666667  0.13883000  1
  Al  Al1  1  0.66666667  0.33333333  0.63030400  1
  H  H2  3  0.09790833  0.72281467  0.64162400  1
  H  H3  3  0.40228333  0.08707367  0.12977600  1
  H  H4  1  0.00000000  0.00000000  0.05554700  1
  H  H5  1  0.00000000  0.00000000  0.37036900  1
