# generated using pymatgen
data_Li4H
_symmetry_space_group_name_H-M   P3m1
_cell_length_a   2.27907185
_cell_length_b   2.27907185
_cell_length_c   7.73741171
_cell_angle_alpha   90.00000000
_cell_angle_beta   90.00000000
_cell_angle_gamma   120.00000000
_symmetry_Int_Tables_number   156
_chemical_formula_structural   Li4H
_chemical_formula_sum   'Li4 H1'
_cell_volume   34.80505872
_cell_formula_units_Z   1
loop_
 _symmetry_equiv_pos_site_id
 _symmetry_equiv_pos_as_xyz
  1  'x, y, z'
  2  '-y, x-y, z'
  3  '-x+y, -x, z'
  4  '-y, -x, z'
  5  '-x+y, y, z'
  6  'x, x-y, z'
loop_
 _atom_site_type_symbol
 _atom_site_label
 _atom_site_symmetry_multiplicity
 _atom_site_fract_x
 _atom_site_fract_y
 _atom_site_fract_z
 _atom_site_occupancy
  Li  Li0  1  0.00000000  0.00000000  0.12854900  1
  Li  Li1  1  0.00000000  0.00000000  0.62720300  1
  Li  Li2  1  0.33333333  0.66666667  0.37894000  1
  Li  Li3  1  0.66666667  0.33333333  0.87806200  1
  H  H4  1  0.33333333  0.66666667  0.00344700  1
