# generated using pymatgen
data_Be2O
_symmetry_space_group_name_H-M   P3m1
_cell_length_a   2.41531055
_cell_length_b   2.41531055
_cell_length_c   3.78018351
_cell_angle_alpha   90.00000000
_cell_angle_beta   90.00000000
_cell_angle_gamma   120.00000000
_symmetry_Int_Tables_number   156
_chemical_formula_structural   Be2O
_chemical_formula_sum   'Be2 O1'
_cell_volume   19.09806953
_cell_formula_units_Z   1
loop_
 _symmetry_equiv_pos_site_id
 _symmetry_equiv_pos_as_xyz
  1  'x, y, z'
  2  '-y, x-y, z'
  3  '-x+y, -x, z'
  4  '-y, -x, z'
  5  '-x+y, y, z'
  6  'x, x-y, z'
loop_
 _atom_site_type_symbol
 _atom_site_label
 _atom_site_symmetry_multiplicity
 _atom_site_fract_x
 _atom_site_fract_y
 _atom_site_fract_z
 _atom_site_occupancy
  Be  Be0  1  0.00000000  0.00000000  0.31826400  1
  Be  Be1  1  0.66666667  0.33333333  0.74523400  1
  O  O2  1  0.00000000  0.00000000  0.91038900  1
