# generated using pymatgen
data_SiS2
_symmetry_space_group_name_H-M   P6_3mc
_cell_length_a   3.05727810
_cell_length_b   3.05727810
_cell_length_c   9.17030618
_cell_angle_alpha   90.00000000
_cell_angle_beta   90.00000000
_cell_angle_gamma   120.00000000
_symmetry_Int_Tables_number   186
_chemical_formula_structural   SiS2
_chemical_formula_sum   'Si2 S4'
_cell_volume   74.23083722
_cell_formula_units_Z   2
loop_
 _symmetry_equiv_pos_site_id
 _symmetry_equiv_pos_as_xyz
  1  'x, y, z'
  2  'x-y, x, z+1/2'
  3  '-y, x-y, z'
  4  '-x, -y, z+1/2'
  5  '-x+y, -x, z'
  6  'y, -x+y, z+1/2'
  7  'y, x, z+1/2'
  8  'x, x-y, z'
  9  'x-y, -y, z+1/2'
  10  '-y, -x, z'
  11  '-x, -x+y, z+1/2'
  12  '-x+y, y, z'
loop_
 _atom_site_type_symbol
 _atom_site_label
 _atom_site_symmetry_multiplicity
 _atom_site_fract_x
 _atom_site_fract_y
 _atom_site_fract_z
 _atom_site_occupancy
  Si  Si0  2  0.33333333  0.66666667  0.58848300  1
  S  S1  2  0.00000000  0.00000000  0.22815700  1
  S  S2  2  0.33333333  0.66666667  0.95174800  1
