# generated using pymatgen
data_MgN
_symmetry_space_group_name_H-M   P-6m2
_cell_length_a   3.06449226
_cell_length_b   3.06449226
_cell_length_c   4.05202503
_cell_angle_alpha   90.00000000
_cell_angle_beta   90.00000000
_cell_angle_gamma   120.00000000
_symmetry_Int_Tables_number   187
_chemical_formula_structural   MgN
_chemical_formula_sum   'Mg2 N2'
_cell_volume   32.95488551
_cell_formula_units_Z   2
loop_
 _symmetry_equiv_pos_site_id
 _symmetry_equiv_pos_as_xyz
  1  'x, y, z'
  2  '-x+2/3, -y+1/3, -z+1/2'
  3  'x-y+2/3, x+1/3, z+1/2'
  4  '-x+y, -x, -z'
  5  '-y, x-y, z'
  6  'y+2/3, -x+y+1/3, -z+1/2'
  7  '-x+2/3, -y+1/3, z+1/2'
  8  'x, y, -z'
  9  '-x+y, -x, z'
  10  'x-y+2/3, x+1/3, -z+1/2'
  11  'y+2/3, -x+y+1/3, z+1/2'
  12  '-y, x-y, -z'
  13  '-y, -x, -z'
  14  'y+2/3, x+1/3, z+1/2'
  15  '-x+2/3, -x+y+1/3, -z+1/2'
  16  'x, x-y, z'
  17  '-x+y, y, -z'
  18  'x-y+2/3, -y+1/3, z+1/2'
  19  'y+2/3, x+1/3, -z+1/2'
  20  '-y, -x, z'
  21  'x, x-y, -z'
  22  '-x+2/3, -x+y+1/3, z+1/2'
  23  'x-y+2/3, -y+1/3, -z+1/2'
  24  '-x+y, y, z'
loop_
 _atom_site_type_symbol
 _atom_site_label
 _atom_site_symmetry_multiplicity
 _atom_site_fract_x
 _atom_site_fract_y
 _atom_site_fract_z
 _atom_site_occupancy
  Mg  Mg0  2  0.00000000  0.00000000  0.00000000  1
  N  N1  2  0.33333333  0.66666667  0.71956600  1
