# generated using pymatgen
data_B6N
_symmetry_space_group_name_H-M   R3m
_cell_length_a   2.61102256
_cell_length_b   2.61102256
_cell_length_c   20.61176105
_cell_angle_alpha   90.00000000
_cell_angle_beta   90.00000000
_cell_angle_gamma   120.00000000
_symmetry_Int_Tables_number   160
_chemical_formula_structural   B6N
_chemical_formula_sum   'B18 N3'
_cell_volume   121.69338683
_cell_formula_units_Z   3
loop_
 _symmetry_equiv_pos_site_id
 _symmetry_equiv_pos_as_xyz
  1  'x, y, z'
  2  '-y, x-y, z'
  3  '-x+y, -x, z'
  4  '-y, -x, z'
  5  '-x+y, y, z'
  6  'x, x-y, z'
  7  'x+2/3, y+1/3, z+1/3'
  8  '-y+2/3, x-y+1/3, z+1/3'
  9  '-x+y+2/3, -x+1/3, z+1/3'
  10  '-y+2/3, -x+1/3, z+1/3'
  11  '-x+y+2/3, y+1/3, z+1/3'
  12  'x+2/3, x-y+1/3, z+1/3'
  13  'x+1/3, y+2/3, z+2/3'
  14  '-y+1/3, x-y+2/3, z+2/3'
  15  '-x+y+1/3, -x+2/3, z+2/3'
  16  '-y+1/3, -x+2/3, z+2/3'
  17  '-x+y+1/3, y+2/3, z+2/3'
  18  'x+1/3, x-y+2/3, z+2/3'
loop_
 _atom_site_type_symbol
 _atom_site_label
 _atom_site_symmetry_multiplicity
 _atom_site_fract_x
 _atom_site_fract_y
 _atom_site_fract_z
 _atom_site_occupancy
  B  B0  3  0.00000000  0.00000000  0.36529167  1
  B  B1  3  0.00000000  0.00000000  0.44540167  1
  B  B2  3  0.00000000  0.00000000  0.52368533  1
  B  B3  3  0.00000000  0.00000000  0.60257267  1
  B  B4  3  0.00000000  0.00000000  0.73802500  1
  B  B5  3  0.00000000  0.00000000  0.81914767  1
  N  N6  3  0.00000000  0.00000000  0.29417100  1
