# generated using pymatgen
data_B6S
_symmetry_space_group_name_H-M   P-3m1
_cell_length_a   4.47379491
_cell_length_b   4.47379491
_cell_length_c   5.43965548
_cell_angle_alpha   90.00000000
_cell_angle_beta   90.00000000
_cell_angle_gamma   120.00000000
_symmetry_Int_Tables_number   164
_chemical_formula_structural   B6S
_chemical_formula_sum   'B12 S2'
_cell_volume   94.28751026
_cell_formula_units_Z   2
loop_
 _symmetry_equiv_pos_site_id
 _symmetry_equiv_pos_as_xyz
  1  'x, y, z'
  2  '-x, -y, -z'
  3  '-y, x-y, z'
  4  'y, -x+y, -z'
  5  '-x+y, -x, z'
  6  'x-y, x, -z'
  7  'y, x, -z'
  8  '-y, -x, z'
  9  'x-y, -y, -z'
  10  '-x+y, y, z'
  11  '-x, -x+y, -z'
  12  'x, x-y, z'
loop_
 _atom_site_type_symbol
 _atom_site_label
 _atom_site_symmetry_multiplicity
 _atom_site_fract_x
 _atom_site_fract_y
 _atom_site_fract_z
 _atom_site_occupancy
  B  B0  6  0.12712050  0.25424100  0.75562900  1
  B  B1  6  0.20128000  0.79872000  0.05672400  1
  S  S2  2  0.33333333  0.66666667  0.57520100  1
