# generated using pymatgen
data_BC6
_symmetry_space_group_name_H-M   I-4m2
_cell_length_a   2.42596641
_cell_length_b   2.42596641
_cell_length_c   25.45433860
_cell_angle_alpha   90.00000000
_cell_angle_beta   90.00000000
_cell_angle_gamma   90.00000000
_symmetry_Int_Tables_number   119
_chemical_formula_structural   BC6
_chemical_formula_sum   'B4 C24'
_cell_volume   149.80675097
_cell_formula_units_Z   4
loop_
 _symmetry_equiv_pos_site_id
 _symmetry_equiv_pos_as_xyz
  1  'x, y, z'
  2  'y, -x, -z'
  3  '-x, -y, z'
  4  '-y, x, -z'
  5  '-x, y, z'
  6  '-y, -x, -z'
  7  'x, -y, z'
  8  'y, x, -z'
  9  'x+1/2, y+1/2, z+1/2'
  10  'y+1/2, -x+1/2, -z+1/2'
  11  '-x+1/2, -y+1/2, z+1/2'
  12  '-y+1/2, x+1/2, -z+1/2'
  13  '-x+1/2, y+1/2, z+1/2'
  14  '-y+1/2, -x+1/2, -z+1/2'
  15  'x+1/2, -y+1/2, z+1/2'
  16  'y+1/2, x+1/2, -z+1/2'
loop_
 _atom_site_type_symbol
 _atom_site_label
 _atom_site_symmetry_multiplicity
 _atom_site_fract_x
 _atom_site_fract_y
 _atom_site_fract_z
 _atom_site_occupancy
  B  B0  4  0.00000000  0.50000000  0.17590150  1
  C  C1  4  0.00000000  0.00000000  0.06737050  1
  C  C2  4  0.00000000  0.00000000  0.21663800  1
  C  C3  4  0.00000000  0.00000000  0.36380800  1
  C  C4  4  0.00000000  0.50000000  0.03360800  1
  C  C5  4  0.00000000  0.50000000  0.60335600  1
  C  C6  2  0.00000000  0.00000000  0.50000000  1
  C  C7  2  0.00000000  0.50000000  0.75000000  1
