# generated using pymatgen
data_H6O
_symmetry_space_group_name_H-M   I4_1
_cell_length_a   4.03763436
_cell_length_b   4.03763436
_cell_length_c   5.65266950
_cell_angle_alpha   90.00000000
_cell_angle_beta   90.00000000
_cell_angle_gamma   90.00000000
_symmetry_Int_Tables_number   80
_chemical_formula_structural   H6O
_chemical_formula_sum   'H24 O4'
_cell_volume   92.15259493
_cell_formula_units_Z   4
loop_
 _symmetry_equiv_pos_site_id
 _symmetry_equiv_pos_as_xyz
  1  'x, y, z'
  2  '-y, x+1/2, z+1/4'
  3  '-x+1/2, -y+1/2, z+1/2'
  4  'y+1/2, -x, z+3/4'
  5  'x+1/2, y+1/2, z+1/2'
  6  '-y+1/2, x, z+3/4'
  7  '-x, -y, z'
  8  'y, -x+1/2, z+1/4'
loop_
 _atom_site_type_symbol
 _atom_site_label
 _atom_site_symmetry_multiplicity
 _atom_site_fract_x
 _atom_site_fract_y
 _atom_site_fract_z
 _atom_site_occupancy
  H  H0  8  0.00083750  0.79763750  0.47515750  1
  H  H1  8  0.06114200  0.70870000  0.03093700  1
  H  H2  8  0.06816200  0.21005500  0.96421500  1
  O  O3  4  0.00000000  0.00000000  0.36769600  1
