# generated using pymatgen
data_Li6Cl
_symmetry_space_group_name_H-M   R3
_cell_length_a   8.91787662
_cell_length_b   8.91787662
_cell_length_c   2.66706740
_cell_angle_alpha   90.00000000
_cell_angle_beta   90.00000000
_cell_angle_gamma   120.00000000
_symmetry_Int_Tables_number   146
_chemical_formula_structural   Li6Cl
_chemical_formula_sum   'Li18 Cl3'
_cell_volume   183.69085764
_cell_formula_units_Z   3
loop_
 _symmetry_equiv_pos_site_id
 _symmetry_equiv_pos_as_xyz
  1  'x, y, z'
  2  '-y, x-y, z'
  3  '-x+y, -x, z'
  4  'x+2/3, y+1/3, z+1/3'
  5  '-y+2/3, x-y+1/3, z+1/3'
  6  '-x+y+2/3, -x+1/3, z+1/3'
  7  'x+1/3, y+2/3, z+2/3'
  8  '-y+1/3, x-y+2/3, z+2/3'
  9  '-x+y+1/3, -x+2/3, z+2/3'
loop_
 _atom_site_type_symbol
 _atom_site_label
 _atom_site_symmetry_multiplicity
 _atom_site_fract_x
 _atom_site_fract_y
 _atom_site_fract_z
 _atom_site_occupancy
  Li  Li0  9  0.01737900  0.78726900  0.00357300  1
  Li  Li1  9  0.14201633  0.46369067  0.17082967  1
  Cl  Cl2  3  0.00000000  0.00000000  0.01434800  1
