# generated using pymatgen
data_P6H
_symmetry_space_group_name_H-M   P4/mmm
_cell_length_a   2.22114750
_cell_length_b   2.22114750
_cell_length_c   14.46712845
_cell_angle_alpha   90.00000000
_cell_angle_beta   90.00000000
_cell_angle_gamma   90.00000000
_symmetry_Int_Tables_number   123
_chemical_formula_structural   P6H
_chemical_formula_sum   'P6 H1'
_cell_volume   71.37352376
_cell_formula_units_Z   1
loop_
 _symmetry_equiv_pos_site_id
 _symmetry_equiv_pos_as_xyz
  1  'x, y, z'
  2  '-x, -y, -z'
  3  '-y, x, z'
  4  'y, -x, -z'
  5  '-x, -y, z'
  6  'x, y, -z'
  7  'y, -x, z'
  8  '-y, x, -z'
  9  'x, -y, -z'
  10  '-x, y, z'
  11  '-y, -x, -z'
  12  'y, x, z'
  13  '-x, y, -z'
  14  'x, -y, z'
  15  'y, x, -z'
  16  '-y, -x, z'
loop_
 _atom_site_type_symbol
 _atom_site_label
 _atom_site_symmetry_multiplicity
 _atom_site_fract_x
 _atom_site_fract_y
 _atom_site_fract_z
 _atom_site_occupancy
  P  P0  2  0.00000000  0.00000000  0.07813900  1
  P  P1  2  0.00000000  0.00000000  0.23412900  1
  P  P2  2  0.00000000  0.00000000  0.39155450  1
  H  H3  1  0.00000000  0.00000000  0.50000000  1
