# generated using pymatgen
data_LiP6
_symmetry_space_group_name_H-M   R3m
_cell_length_a   3.07914915
_cell_length_b   3.07914915
_cell_length_c   28.77061909
_cell_angle_alpha   90.00000000
_cell_angle_beta   90.00000000
_cell_angle_gamma   120.00000000
_symmetry_Int_Tables_number   160
_chemical_formula_structural   LiP6
_chemical_formula_sum   'Li3 P18'
_cell_volume   236.23339441
_cell_formula_units_Z   3
loop_
 _symmetry_equiv_pos_site_id
 _symmetry_equiv_pos_as_xyz
  1  'x, y, z'
  2  '-y, x-y, z'
  3  '-x+y, -x, z'
  4  '-y, -x, z'
  5  '-x+y, y, z'
  6  'x, x-y, z'
  7  'x+2/3, y+1/3, z+1/3'
  8  '-y+2/3, x-y+1/3, z+1/3'
  9  '-x+y+2/3, -x+1/3, z+1/3'
  10  '-y+2/3, -x+1/3, z+1/3'
  11  '-x+y+2/3, y+1/3, z+1/3'
  12  'x+2/3, x-y+1/3, z+1/3'
  13  'x+1/3, y+2/3, z+2/3'
  14  '-y+1/3, x-y+2/3, z+2/3'
  15  '-x+y+1/3, -x+2/3, z+2/3'
  16  '-y+1/3, -x+2/3, z+2/3'
  17  '-x+y+1/3, y+2/3, z+2/3'
  18  'x+1/3, x-y+2/3, z+2/3'
loop_
 _atom_site_type_symbol
 _atom_site_label
 _atom_site_symmetry_multiplicity
 _atom_site_fract_x
 _atom_site_fract_y
 _atom_site_fract_z
 _atom_site_occupancy
  Li  Li0  3  0.00000000  0.00000000  0.73455700  1
  P  P1  3  0.00000000  0.00000000  0.21247167  1
  P  P2  3  0.00000000  0.00000000  0.34917667  1
  P  P3  3  0.00000000  0.00000000  0.45119900  1
  P  P4  3  0.00000000  0.00000000  0.58854100  1
  P  P5  3  0.00000000  0.00000000  0.82795067  1
  P  P6  3  0.00000000  0.00000000  0.97213300  1
