# generated using pymatgen
data_NaAl
_symmetry_space_group_name_H-M   I4_1/amd
_cell_length_a   4.20727199
_cell_length_b   4.20727199
_cell_length_c   5.78474870
_cell_angle_alpha   90.00000000
_cell_angle_beta   90.00000000
_cell_angle_gamma   90.00000000
_symmetry_Int_Tables_number   141
_chemical_formula_structural   NaAl
_chemical_formula_sum   'Na4 Al4'
_cell_volume   102.39663281
_cell_formula_units_Z   4
loop_
 _symmetry_equiv_pos_site_id
 _symmetry_equiv_pos_as_xyz
  1  'x, y, z'
  2  '-y, x+1/2, z+1/4'
  3  '-x+1/2, -y+1/2, z+1/2'
  4  'y+1/2, -x, z+3/4'
  5  'y, x, -z'
  6  'x+1/2, -y, -z+3/4'
  7  '-y+1/2, -x+1/2, -z+1/2'
  8  '-x, y+1/2, -z+1/4'
  9  '-x, -y+1/2, -z+1/4'
  10  'y, -x, -z'
  11  'x+1/2, y, -z+3/4'
  12  '-y+1/2, x+1/2, -z+1/2'
  13  '-y, -x+1/2, z+1/4'
  14  '-x+1/2, y+1/2, z+1/2'
  15  'y+1/2, x, z+3/4'
  16  'x, -y, z'
  17  'x+1/2, y+1/2, z+1/2'
  18  '-y+1/2, x, z+3/4'
  19  '-x, -y, z'
  20  'y, -x+1/2, z+1/4'
  21  'y+1/2, x+1/2, -z+1/2'
  22  'x, -y+1/2, -z+1/4'
  23  '-y, -x, -z'
  24  '-x+1/2, y, -z+3/4'
  25  '-x+1/2, -y, -z+3/4'
  26  'y+1/2, -x+1/2, -z+1/2'
  27  'x, y+1/2, -z+1/4'
  28  '-y, x, -z'
  29  '-y+1/2, -x, z+3/4'
  30  '-x, y, z'
  31  'y, x+1/2, z+1/4'
  32  'x+1/2, -y+1/2, z+1/2'
loop_
 _atom_site_type_symbol
 _atom_site_label
 _atom_site_symmetry_multiplicity
 _atom_site_fract_x
 _atom_site_fract_y
 _atom_site_fract_z
 _atom_site_occupancy
  Na  Na0  4  0.00000000  0.00000000  0.50000000  1
  Al  Al1  4  0.00000000  0.00000000  0.00000000  1
