# generated using pymatgen
data_BeS
_symmetry_space_group_name_H-M   I-4m2
_cell_length_a   3.14294771
_cell_length_b   3.14294771
_cell_length_c   4.33643403
_cell_angle_alpha   90.00000000
_cell_angle_beta   90.00000000
_cell_angle_gamma   90.00000000
_symmetry_Int_Tables_number   119
_chemical_formula_structural   BeS
_chemical_formula_sum   'Be2 S2'
_cell_volume   42.83581707
_cell_formula_units_Z   2
loop_
 _symmetry_equiv_pos_site_id
 _symmetry_equiv_pos_as_xyz
  1  'x, y, z'
  2  'y, -x, -z'
  3  '-x, -y, z'
  4  '-y, x, -z'
  5  'y, x, -z'
  6  '-x, y, z'
  7  '-y, -x, -z'
  8  'x, -y, z'
  9  'x+1/2, y+1/2, z+1/2'
  10  'y+1/2, -x+1/2, -z+1/2'
  11  '-x+1/2, -y+1/2, z+1/2'
  12  '-y+1/2, x+1/2, -z+1/2'
  13  'y+1/2, x+1/2, -z+1/2'
  14  '-x+1/2, y+1/2, z+1/2'
  15  '-y+1/2, -x+1/2, -z+1/2'
  16  'x+1/2, -y+1/2, z+1/2'
loop_
 _atom_site_type_symbol
 _atom_site_label
 _atom_site_symmetry_multiplicity
 _atom_site_fract_x
 _atom_site_fract_y
 _atom_site_fract_z
 _atom_site_occupancy
  Be  Be0  2  0.00000000  0.50000000  0.75000000  1
  S  S1  2  0.00000000  0.00000000  0.50000000  1
